---- qbsp / ericw-tools 2.0.0-alpha8-29-gb2f23f76 ----

--- Options Summary ---
    "nocolor" was set to "1" (from command line)

Input file: C:\Users\cheir\Downloads\quake-leveldesign-starterkit-20240930-windows\quake-leveldesign-starterkit-20240930-windows\tools\ironwail\id1\maps\Whispers_of_the_Park_2024\Whispers_of_the_Park-compile.map
Output file: C:\Users\cheir\Downloads\quake-leveldesign-starterkit-20240930-windows\quake-leveldesign-starterkit-20240930-windows\tools\ironwail\id1\maps\Whispers_of_the_Park_2024\Whispers_of_the_Park.bsp

INFO: using built-in palette.
      410 entities
       30 unique textures
    3,982 texinfos
    4,856 unique planes

INFO: world extents calculated to 9352 units
      844 brushes
    5,977 sides
    2,029 side bevels

            0 texture frames added
WARNING: unable to find texture skip
Processing hull 0...
    819 SOLID brushes
     16 SKY brushes
      9 WATER | Q2_UNUSED_8 brushes
    844 brushes total
    5,977 visible sides
INFO: calculating BSP for 844 brushes with 5977 sides
      844 brushes
    5,977 visible faces
    17,963 nodes
     9,805 expensive split nodes
     8,158 mid-split nodes
    17,964 leaves
       309 WATER | Q2_UNUSED_8 leafs
     8,535 EMPTY leafs
     1,096 SKY leafs
     8,024 SOLID leafs
    17,964 leafs total
    49 max tree height
    19 avg tree height
    310 tiny portals
    74,156 tree portals
    1,831 outside leaves
    0 detail filled leafs
      844 brushes
    4,251 visible faces
    1,726 non-visible faces
    7,238 nodes
    1,005 non-visible nodes
    7,238 expensive split nodes
    7,239 leaves
      167 WATER | Q2_UNUSED_8 leafs
    3,401 EMPTY leafs
      119 SKY leafs
    3,552 SOLID leafs
    7,239 leafs total
    204 max tree height
     43 avg tree height
    169 tiny portals
    35,227 tree portals
    359 outside leaves
    0 detail filled leafs
    169 tiny portals
    35,227 tree portals
WARNING: 1 sides not found (use -verbose to display)
    11,575 sides visible
    11,035 makefaces
     2,613 merged
       491 subdivided
    1,586 nodes pruned
    115 tiny portals
     3,328 player-occupiable leaves
     3,217 clusters of leaves
    11,356 vis portals
    2,325 SOLID leafs
      119 SKY leafs
      159 WATER | Q2_UNUSED_8 leafs
    3,050 EMPTY leafs
    5,653 leafs total
    204 max tree height
     43 avg tree height
         4 edges degenerated
     7,074 edges added by tjunctions
     7,796 faces optimized through MWT
    23,027 triangles computed from MWT
     1,768 faces created via optimization of MWT triangles
    23,419 edges
    10,681 faces
Processing hull 1...
Processing hull 2...
WARNING: worldspawn at 0 0 0 has long value for key wad (length 339 >= 127)
Writing Whispers_of_the_Park.bsp as Quake BSP bsp29
Wrote Whispers_of_the_Park.bsp

count   lump name    byte size 
      1 models               64
   5337 planes           106740
  11687 vertexes         140244
   5652 nodes            135648
   3135 texinfos         125400
  10681 faces            213620
  11932 clipnodes         95456
   3329 leafs             93212
  12784 marksurfaces      25568
  23420 edges             93680
  45507 surfedges        182028
     30 textures         236564
        lightdata             0
        visdata               0
        entdata           24355

6.007s seconds elapsed


